trunk/ipss.plugin.test/testData/ge/test.EPC
title
03/11/02JOFORPT200.02000SPORTUG100.0CASE
!
comments
!
solution parameters
tap    1    tcul  enabled/disabled
phas   1    ps    enabled/disabled
area   1    area  enabled/disabled
svd    1    svd   enabled/disabled
dctap  1    dc    enabled/disabled
ped    1    ped   enabled/disabled
jump  0.000100    jumper threshold
toler   0.1000    newton tolerance
sbase    100.0    system mva base
!
bus data  [    5]             ty  vsched   volt     angle   ar zone  vmax   vmin   date_in date_out pid L own
       1 "P-1     " 380.00  :  0 1.04000 1.040000  -5.00000   1  201 4.0000 0.4000   400101   391231   0 0   1
       2 "P-2     " 380.00  :  1 1.000000 1.000000  -5.00000   1  201 4.0000 0.4000   400101   391231   0 0   1
       3 "P-3     " 380.00  :  1 1.000000 1.000000  -5.00000   1  201 4.0000 0.4000   400101   391231   0 0   1
       4 "P-4     " 380.00  :  2 1.04000 1.040000  -5.00000   1  201 4.0000 0.4000   400101   391231   0 0   1
       5 "P-5     " 380.00  :  2 1.04000 1.040000  -5.00000   1  201 4.0000 0.4000   400101   391231   0 0   1
branch data  [    5]                                 ck  se  long_id_    st resist   react   charge   rate1  rate2  rate3  rate4 aloss  lngth
      1 "P-1     " 380.00       2 "P-2     " 380.00 "1 "  1 "        " :  1 0.00000 0.02348 0.00000    0.0    0.0    0.0    0.0 1.000    1.0 /
  1 201 0.0000 0.000 1.000   400101   391231   0 1  0    0.0    0.0    0.0    0.0   1 1.000   0 1.000   0 1.000   0 1.000   0 0.000   0 0.000   0 0.000   0 0.000  0
      1 "P-1     " 380.00       2 "P-2     " 380.00 "2 "  1 "        " :  1 0.00000 0.02345 0.00000    0.0    0.0    0.0    0.0 1.000    1.0 /
  1 201 0.0000 0.000 1.000   400101   391231   0 1  0    0.0    0.0    0.0    0.0   1 1.000   0 1.000   0 1.000   0 1.000   0 0.000   0 0.000   0 0.000   0 0.000  0
      1 "P-1     " 380.00      79 "E-55    " 380.00 "1 "  1 "        " :  1 0.00000 0.02073 0.00000 1260.0    0.0    0.0    0.0 1.000    1.0 /
  1 201 0.0000 0.000 1.000   400101   391231   0 1  0    0.0    0.0    0.0    0.0   1 1.000   0 1.000   0 1.000   0 1.000   0 0.000   0 0.000   0 0.000   0 0.000  0
      6 "P-6     " 380.00       2 "P-2     " 380.00 "1 "  1 "        " :  1 0.00000 0.01533 0.00000    0.0    0.0    0.0    0.0 1.000    1.0 /
  1 201 0.0000 0.000 1.000   400101   391231   0 1  0    0.0    0.0    0.0    0.0   1 1.000   0 1.000   0 1.000   0 1.000   0 0.000   0 0.000   0 0.000   0 0.000  0
transformer data  [   0]                               ck   long_id_    st ty --no---    reg_name          zt         int                           tert               ar zone  tbase   ps_r    ps_x    pt_r    pt_x    ts_r    ts_x
generator data  [   4]     id   long_id_    st ---no--     reg_name       prf  qrf  ar zone   pgen   pmax   pmin   qgen   qmax   qmin   mbase cmp_r cmp_x gen_r gen_x           hbus                    tbus           date_in date_out pid N
   1000 "A-5     " 380.00 "1 " "        " :  1    1000 "A-5     " 380.00  0.00 1.00  10  354  261.40  625.2    0.0    0.0 3000.0 -3000.0 100.0000 0.000 0.000 0.000 1.000      -1 "        "   0.00      -1 "        "   0.00    400101   391231   0 0 /
 0.0000 0.0000 1.0000   1 1.000   0 0.000   0 0.000   0 0.000    0 0.000    0 0.000    0 0.000    0 0.000 
   1001 "A-6     " 380.00 "1 " "        " :  1    1001 "A-6     " 380.00  0.00 1.00  10  354  357.86  855.9    0.0    0.0 3000.0 -3000.0 100.0000 0.000 0.000 0.000 1.000      -1 "        "   0.00      -1 "        "   0.00    400101   391231   0 0 /
 0.0000 0.0000 1.0000   1 1.000   0 0.000   0 0.000   0 0.000    0 0.000    0 0.000    0 0.000    0 0.000 
   1002 "A-7     " 380.00 "1 " "        " :  1    1002 "A-7     " 380.00  0.00 1.00  10  353  294.38  704.1    0.0    0.0 3000.0 -3000.0 100.0000 0.000 0.000 0.000 1.000      -1 "        "   0.00      -1 "        "   0.00    400101   391231   0 0 /
 0.0000 0.0000 1.0000   1 1.000   0 0.000   0 0.000   0 0.000    0 0.000    0 0.000    0 0.000    0 0.000 
load data  [   5]           id   long_id_     st      mw      mvar    mw_i    mvar_i  mw_z      mvar_z ar zone  date_in date_out pid N own
       2 "P-2     " 380.00 "1 " "        "  :  1  868.096    0.000    0.000    0.000    0.000    0.000   1  201   400101   391231   0 0   1
       3 "P-3     " 380.00 "1 " "        "  :  1   41.524    0.000    0.000    0.000    0.000    0.000   1  201   400101   391231   0 0   1
       6 "P-6     " 380.00 "1 " "        "  :  1  969.165    0.000    0.000    0.000    0.000    0.000   1  201   400101   391231   0 0   1
       9 "P-10    " 380.00 "1 " "        "  :  1   83.832    0.000    0.000    0.000    0.000    0.000   1  201   400101   391231   0 0   1
      10 "P-11    " 380.00 "1 " "        "  :  1  205.272    0.000    0.000    0.000    0.000    0.000   1  201   400101   391231   0 0   1
shunt data  [   0]          id                               ck  se  long_id_     st ar zone    pu_mw  pu_mvar    date_in date_out pid N own part1 own part2 own part3 own part4 --num--  --name--  --kv--
svd data  [   0]             id   long_id_    st ty --no---     reg_name       ar zone      g      b  min_c  max_c  vband   bmin   bmax  date_in date_out pid N own part1 own part2 own part3 own part4
area data  [17]                            swing  desired    tol      pnet     qnet
    1 "P                               "       0      0.0   1000.0    -88.2    -84.1
    2 "E                               "       0      0.0      1.0    107.1    309.5
    3 "F                               "       0      0.0      1.0    -32.7    580.1
    4 "B                               "       0      0.0      1.0    -65.9   -338.4
zone data  [ 163]                            pnet     qnet
    2 "Italyz2                         "    9.448  112.738
    3 "calabria                        "  -37.086 -434.614
    4 "Italy04                         "   27.638  321.876
    6 "campania                        "   10.120  117.562
    7 "lazio+um                        " -336.571  -45.057
interface data  [  28]                      pnet     qnet   -rate1- -rate2- -rate3- -rate4-
    1 "E-P                             "   88.209   84.065  2275.0     0.0     0.0    0.0     0.0     0.0     0.0     0.0 
    2 "E-F                             "   18.893  225.441  2954.0     0.0     0.0    0.0     0.0     0.0     0.0     0.0 
    3 "F-I                             "   32.989  398.911  3413.0     0.0     0.0    0.0     0.0     0.0     0.0     0.0 
    4 "B-F                             "   -0.943 -276.568  2828.0     0.0     0.0    0.0     0.0     0.0     0.0     0.0 
interface branch data  [   28]                       ck      -i_no-  part_fac
     79 "E-55    " 380.00       1 "P-1     " 380.00 "1 "   :      1     1.000
    133 "E-109   " 380.00       8 "P-9     " 380.00 "1 "   :      1     1.000
    127 "E-103   " 380.00       8 "P-9     " 380.00 "1 "   :      1     1.000
    165 "E-141   " 380.00      18 "P-19    " 380.00 "1 "   :      1     1.000
    515 "F_Mougue" 380.00      39 "E-E_Arka" 380.00 "1 "   :      2     1.000
dc bus data  [ 0]             ty ar  zone   vsched     dc_volt  date_in date_out pid own
dc converter data  [ 0]                               id   long_id_    st ty md nb fg  --no---           reg   ar zone  date_in date_out
z table data  [ 0]
transaction data  [    0]              st    sch_mw   sch_mvar  flag stn pid         transaction name
owner data  [    1]    owner name           s name       net_mw   net_mvar     sch_mw   sch_mvar  ar
       1 "1                               " "    "       0.00       0.00       0.00       0.00   0
motor data  [    0]
line data  [    0]                                 ck  se  long_id_    st  pole name  length w1  ---cond name---   w2  ---cond name---
end
